ARB_GBA01F3_2019/results_Main/PVSystems_0.4.dss
New PVSystem.PV0 phases=3 Bus1=91080bf42136.1.2.3.0 kV=0.22 kVA=13.52 Pmpp=13.52 conn=wye PF = 1 %cutin = 0.00005 %cutout = 0.00005 effcurve = Myeff P-TCurve = MyPvsT Daily = MyIrrad TDaily = Mytemp 
New PVSystem.PV1 phases=1 Bus1=104132278m784.1.0 kV=13.8 kVA=1930.42 Pmpp=1930.42 conn=wye PF = 1 %cutin = 0.00005 %cutout = 0.00005 effcurve = Myeff P-TCurve = MyPvsT Daily = MyIrrad TDaily = Mytemp 
New PVSystem.PV2 phases=3 Bus1=90978bf48337.1.2.3.0 kV=0.22 kVA=16.92 Pmpp=16.92 conn=wye PF = 1 %cutin = 0.00005 %cutout = 0.00005 effcurve = Myeff P-TCurve = MyPvsT Daily = MyIrrad TDaily = Mytemp 
New PVSystem.PV3 phases=3 Bus1=13438251bf60891.1.2.3.0 kV=0.22 kVA=19.84 Pmpp=19.84 conn=wye PF = 1 %cutin = 0.00005 %cutout = 0.00005 effcurve = Myeff P-TCurve = MyPvsT Daily = MyIrrad TDaily = Mytemp 
New PVSystem.PV4 phases=3 Bus1=10305457m784.1.2.3 kV=13.8 kVA=132.88 Pmpp=132.88 conn=wye PF = 1 %cutin = 0.00005 %cutout = 0.00005 effcurve = Myeff P-TCurve = MyPvsT Daily = MyIrrad TDaily = Mytemp 
New PVSystem.PV5 phases=3 Bus1=91181bf42124.1.2.3.0 kV=0.22 kVA=19.39 Pmpp=19.39 conn=wye PF = 1 %cutin = 0.00005 %cutout = 0.00005 effcurve = Myeff P-TCurve = MyPvsT Daily = MyIrrad TDaily = Mytemp 
New PVSystem.PV6 phases=3 Bus1=12931736m784.1.2.3 kV=13.8 kVA=639.12 Pmpp=639.12 conn=wye PF = 1 %cutin = 0.00005 %cutout = 0.00005 effcurve = Myeff P-TCurve = MyPvsT Daily = MyIrrad TDaily = Mytemp 
New PVSystem.PV7 phases=2 Bus1=983407bf46482.1.2.0 kV=0.22 kVA=10.6 Pmpp=10.6 conn=wye PF = 1 %cutin = 0.00005 %cutout = 0.00005 effcurve = Myeff P-TCurve = MyPvsT Daily = MyIrrad TDaily = Mytemp 
New PVSystem.PV8 phases=2 Bus1=94176bf45366.1.2.0 kV=0.22 kVA=16.2 Pmpp=16.2 conn=wye PF = 1 %cutin = 0.00005 %cutout = 0.00005 effcurve = Myeff P-TCurve = MyPvsT Daily = MyIrrad TDaily = Mytemp 
New PVSystem.PV9 phases=2 Bus1=94063bf42143.1.2.0 kV=0.22 kVA=2.6 Pmpp=2.6 conn=wye PF = 1 %cutin = 0.00005 %cutout = 0.00005 effcurve = Myeff P-TCurve = MyPvsT Daily = MyIrrad TDaily = Mytemp 
New PVSystem.PV10 phases=2 Bus1=512419bf45838.2.3.0 kV=0.22 kVA=11.87 Pmpp=11.87 conn=wye PF = 1 %cutin = 0.00005 %cutout = 0.00005 effcurve = Myeff P-TCurve = MyPvsT Daily = MyIrrad TDaily = Mytemp 
New PVSystem.PV11 phases=1 Bus1=512419bf45838.3.0 kV=0.127 kVA=1.47 Pmpp=1.47 conn=wye PF = 1 %cutin = 0.00005 %cutout = 0.00005 effcurve = Myeff P-TCurve = MyPvsT Daily = MyIrrad TDaily = Mytemp 
New PVSystem.PV12 phases=3 Bus1=94060bf42117.1.2.3.0 kV=0.22 kVA=20.51 Pmpp=20.51 conn=wye PF = 1 %cutin = 0.00005 %cutout = 0.00005 effcurve = Myeff P-TCurve = MyPvsT Daily = MyIrrad TDaily = Mytemp 
New PVSystem.PV13 phases=3 Bus1=13384834bf42159.1.2.3.0 kV=0.22 kVA=6.36 Pmpp=6.36 conn=wye PF = 1 %cutin = 0.00005 %cutout = 0.00005 effcurve = Myeff P-TCurve = MyPvsT Daily = MyIrrad TDaily = Mytemp 
New PVSystem.PV14 phases=2 Bus1=94083bf42138.1.2.0 kV=0.22 kVA=11.66 Pmpp=11.66 conn=wye PF = 1 %cutin = 0.00005 %cutout = 0.00005 effcurve = Myeff P-TCurve = MyPvsT Daily = MyIrrad TDaily = Mytemp 
New PVSystem.PV15 phases=3 Bus1=94081bf42122.1.2.3.0 kV=0.22 kVA=20.0 Pmpp=20.0 conn=wye PF = 1 %cutin = 0.00005 %cutout = 0.00005 effcurve = Myeff P-TCurve = MyPvsT Daily = MyIrrad TDaily = Mytemp 
New PVSystem.PV16 phases=2 Bus1=13384834bf42159.1.2.0 kV=0.22 kVA=4.02 Pmpp=4.02 conn=wye PF = 1 %cutin = 0.00005 %cutout = 0.00005 effcurve = Myeff P-TCurve = MyPvsT Daily = MyIrrad TDaily = Mytemp 
New PVSystem.PV17 phases=3 Bus1=13384834bf42159.1.2.3.0 kV=0.22 kVA=13.82 Pmpp=13.82 conn=wye PF = 1 %cutin = 0.00005 %cutout = 0.00005 effcurve = Myeff P-TCurve = MyPvsT Daily = MyIrrad TDaily = Mytemp 
New PVSystem.PV18 phases=2 Bus1=91087bf46262.3.1.0 kV=0.22 kVA=2.37 Pmpp=2.37 conn=wye PF = 1 %cutin = 0.00005 %cutout = 0.00005 effcurve = Myeff P-TCurve = MyPvsT Daily = MyIrrad TDaily = Mytemp 
New PVSystem.PV19 phases=2 Bus1=94077bf44202.1.2.0 kV=0.22 kVA=23.87 Pmpp=23.87 conn=wye PF = 1 %cutin = 0.00005 %cutout = 0.00005 effcurve = Myeff P-TCurve = MyPvsT Daily = MyIrrad TDaily = Mytemp 
New PVSystem.PV20 phases=3 Bus1=94165bf42158.1.2.3.0 kV=0.22 kVA=10.73 Pmpp=10.73 conn=wye PF = 1 %cutin = 0.00005 %cutout = 0.00005 effcurve = Myeff P-TCurve = MyPvsT Daily = MyIrrad TDaily = Mytemp 
New PVSystem.PV21 phases=3 Bus1=94103bf42129.1.2.3.0 kV=0.22 kVA=54.57 Pmpp=54.57 conn=wye PF = 1 %cutin = 0.00005 %cutout = 0.00005 effcurve = Myeff P-TCurve = MyPvsT Daily = MyIrrad TDaily = Mytemp 
New PVSystem.PV22 phases=3 Bus1=13438251bf60891.1.2.3.0 kV=0.22 kVA=24.69 Pmpp=24.69 conn=wye PF = 1 %cutin = 0.00005 %cutout = 0.00005 effcurve = Myeff P-TCurve = MyPvsT Daily = MyIrrad TDaily = Mytemp 
New PVSystem.PV23 phases=3 Bus1=430966bf60875.1.2.3.0 kV=0.22 kVA=11.08 Pmpp=11.08 conn=wye PF = 1 %cutin = 0.00005 %cutout = 0.00005 effcurve = Myeff P-TCurve = MyPvsT Daily = MyIrrad TDaily = Mytemp 
New PVSystem.PV24 phases=3 Bus1=94098bf42132.1.2.3.0 kV=0.22 kVA=37.98 Pmpp=37.98 conn=wye PF = 1 %cutin = 0.00005 %cutout = 0.00005 effcurve = Myeff P-TCurve = MyPvsT Daily = MyIrrad TDaily = Mytemp 
New PVSystem.PV25 phases=3 Bus1=94054bf42148.1.2.3.0 kV=0.22 kVA=32.0 Pmpp=32.0 conn=wye PF = 1 %cutin = 0.00005 %cutout = 0.00005 effcurve = Myeff P-TCurve = MyPvsT Daily = MyIrrad TDaily = Mytemp 
New PVSystem.PV26 phases=2 Bus1=440646bf42152.2.3.0 kV=0.22 kVA=8.66 Pmpp=8.66 conn=wye PF = 1 %cutin = 0.00005 %cutout = 0.00005 effcurve = Myeff P-TCurve = MyPvsT Daily = MyIrrad TDaily = Mytemp 
New PVSystem.PV27 phases=2 Bus1=94055bf42147.2.3.0 kV=0.22 kVA=4.69 Pmpp=4.69 conn=wye PF = 1 %cutin = 0.00005 %cutout = 0.00005 effcurve = Myeff P-TCurve = MyPvsT Daily = MyIrrad TDaily = Mytemp 
New PVSystem.PV28 phases=3 Bus1=91417bf42149.1.2.3.0 kV=0.22 kVA=5.19 Pmpp=5.19 conn=wye PF = 1 %cutin = 0.00005 %cutout = 0.00005 effcurve = Myeff P-TCurve = MyPvsT Daily = MyIrrad TDaily = Mytemp 
New PVSystem.PV29 phases=3 Bus1=94081bf42122.1.2.3.0 kV=0.22 kVA=2.12 Pmpp=2.12 conn=wye PF = 1 %cutin = 0.00005 %cutout = 0.00005 effcurve = Myeff P-TCurve = MyPvsT Daily = MyIrrad TDaily = Mytemp 
New PVSystem.PV30 phases=3 Bus1=94056bf42145.1.2.3.0 kV=0.22 kVA=7.55 Pmpp=7.55 conn=wye PF = 1 %cutin = 0.00005 %cutout = 0.00005 effcurve = Myeff P-TCurve = MyPvsT Daily = MyIrrad TDaily = Mytemp 
New PVSystem.PV31 phases=2 Bus1=94073bf42142.3.1.0 kV=0.22 kVA=17.24 Pmpp=17.24 conn=wye PF = 1 %cutin = 0.00005 %cutout = 0.00005 effcurve = Myeff P-TCurve = MyPvsT Daily = MyIrrad TDaily = Mytemp 
New PVSystem.PV32 phases=2 Bus1=104301339bf33513.1.2.0 kV=0.22 kVA=6.16 Pmpp=6.16 conn=wye PF = 1 %cutin = 0.00005 %cutout = 0.00005 effcurve = Myeff P-TCurve = MyPvsT Daily = MyIrrad TDaily = Mytemp 
New PVSystem.PV33 phases=3 Bus1=94098bf42132.1.2.3.0 kV=0.22 kVA=11.83 Pmpp=11.83 conn=wye PF = 1 %cutin = 0.00005 %cutout = 0.00005 effcurve = Myeff P-TCurve = MyPvsT Daily = MyIrrad TDaily = Mytemp 
New PVSystem.PV34 phases=3 Bus1=94067bf42119.1.2.3.0 kV=0.22 kVA=7.52 Pmpp=7.52 conn=wye PF = 1 %cutin = 0.00005 %cutout = 0.00005 effcurve = Myeff P-TCurve = MyPvsT Daily = MyIrrad TDaily = Mytemp 
New PVSystem.PV35 phases=2 Bus1=94076bf42139.2.3.0 kV=0.22 kVA=5.66 Pmpp=5.66 conn=wye PF = 1 %cutin = 0.00005 %cutout = 0.00005 effcurve = Myeff P-TCurve = MyPvsT Daily = MyIrrad TDaily = Mytemp 
New PVSystem.PV36 phases=3 Bus1=94083bf42138.1.2.3.0 kV=0.22 kVA=31.07 Pmpp=31.07 conn=wye PF = 1 %cutin = 0.00005 %cutout = 0.00005 effcurve = Myeff P-TCurve = MyPvsT Daily = MyIrrad TDaily = Mytemp 
New PVSystem.PV37 phases=2 Bus1=9559523bf46631.1.2.0 kV=0.22 kVA=19.12 Pmpp=19.12 conn=wye PF = 1 %cutin = 0.00005 %cutout = 0.00005 effcurve = Myeff P-TCurve = MyPvsT Daily = MyIrrad TDaily = Mytemp 
New PVSystem.PV38 phases=2 Bus1=420124bf46355.2.3.0 kV=0.22 kVA=12.55 Pmpp=12.55 conn=wye PF = 1 %cutin = 0.00005 %cutout = 0.00005 effcurve = Myeff P-TCurve = MyPvsT Daily = MyIrrad TDaily = Mytemp 
New PVSystem.PV39 phases=2 Bus1=94096bf42133.2.3.0 kV=0.22 kVA=3.22 Pmpp=3.22 conn=wye PF = 1 %cutin = 0.00005 %cutout = 0.00005 effcurve = Myeff P-TCurve = MyPvsT Daily = MyIrrad TDaily = Mytemp 
New PVSystem.PV40 phases=2 Bus1=91181bf42124.1.2.0 kV=0.22 kVA=8.49 Pmpp=8.49 conn=wye PF = 1 %cutin = 0.00005 %cutout = 0.00005 effcurve = Myeff P-TCurve = MyPvsT Daily = MyIrrad TDaily = Mytemp 
New PVSystem.PV41 phases=3 Bus1=427842bf46058.1.2.3.0 kV=0.22 kVA=14.44 Pmpp=14.44 conn=wye PF = 1 %cutin = 0.00005 %cutout = 0.00005 effcurve = Myeff P-TCurve = MyPvsT Daily = MyIrrad TDaily = Mytemp 
New PVSystem.PV42 phases=2 Bus1=94083bf42138.3.1.0 kV=0.22 kVA=12.32 Pmpp=12.32 conn=wye PF = 1 %cutin = 0.00005 %cutout = 0.00005 effcurve = Myeff P-TCurve = MyPvsT Daily = MyIrrad TDaily = Mytemp 
New PVSystem.PV43 phases=2 Bus1=94144bf42161.3.1.0 kV=0.22 kVA=7.38 Pmpp=7.38 conn=wye PF = 1 %cutin = 0.00005 %cutout = 0.00005 effcurve = Myeff P-TCurve = MyPvsT Daily = MyIrrad TDaily = Mytemp 
New PVSystem.PV44 phases=3 Bus1=91087bf46262.1.2.3.0 kV=0.22 kVA=5.33 Pmpp=5.33 conn=wye PF = 1 %cutin = 0.00005 %cutout = 0.00005 effcurve = Myeff P-TCurve = MyPvsT Daily = MyIrrad TDaily = Mytemp 
New PVSystem.PV45 phases=2 Bus1=94042bf42111.3.1.0 kV=0.22 kVA=5.73 Pmpp=5.73 conn=wye PF = 1 %cutin = 0.00005 %cutout = 0.00005 effcurve = Myeff P-TCurve = MyPvsT Daily = MyIrrad TDaily = Mytemp 
New PVSystem.PV46 phases=2 Bus1=94060bf42117.3.1.0 kV=0.22 kVA=15.82 Pmpp=15.82 conn=wye PF = 1 %cutin = 0.00005 %cutout = 0.00005 effcurve = Myeff P-TCurve = MyPvsT Daily = MyIrrad TDaily = Mytemp 
New PVSystem.PV47 phases=3 Bus1=94041bf42151.1.2.3.0 kV=0.22 kVA=112.59 Pmpp=112.59 conn=wye PF = 1 %cutin = 0.00005 %cutout = 0.00005 effcurve = Myeff P-TCurve = MyPvsT Daily = MyIrrad TDaily = Mytemp 
New PVSystem.PV48 phases=3 Bus1=94156bf42160.1.2.3.0 kV=0.22 kVA=1.17 Pmpp=1.17 conn=wye PF = 1 %cutin = 0.00005 %cutout = 0.00005 effcurve = Myeff P-TCurve = MyPvsT Daily = MyIrrad TDaily = Mytemp 
New PVSystem.PV49 phases=3 Bus1=94138bf42164.1.2.3.0 kV=0.22 kVA=4.33 Pmpp=4.33 conn=wye PF = 1 %cutin = 0.00005 %cutout = 0.00005 effcurve = Myeff P-TCurve = MyPvsT Daily = MyIrrad TDaily = Mytemp 
New PVSystem.PV50 phases=3 Bus1=427692bf46256.1.2.3.0 kV=0.22 kVA=4.01 Pmpp=4.01 conn=wye PF = 1 %cutin = 0.00005 %cutout = 0.00005 effcurve = Myeff P-TCurve = MyPvsT Daily = MyIrrad TDaily = Mytemp 
New PVSystem.PV51 phases=2 Bus1=91189bf48508.1.2.0 kV=0.22 kVA=9.16 Pmpp=9.16 conn=wye PF = 1 %cutin = 0.00005 %cutout = 0.00005 effcurve = Myeff P-TCurve = MyPvsT Daily = MyIrrad TDaily = Mytemp 
New PVSystem.PV52 phases=3 Bus1=94171bf42156.1.2.3.0 kV=0.22 kVA=6.01 Pmpp=6.01 conn=wye PF = 1 %cutin = 0.00005 %cutout = 0.00005 effcurve = Myeff P-TCurve = MyPvsT Daily = MyIrrad TDaily = Mytemp 
New PVSystem.PV53 phases=3 Bus1=12820193bf42135.1.2.3.0 kV=0.22 kVA=5.59 Pmpp=5.59 conn=wye PF = 1 %cutin = 0.00005 %cutout = 0.00005 effcurve = Myeff P-TCurve = MyPvsT Daily = MyIrrad TDaily = Mytemp 
New PVSystem.PV54 phases=2 Bus1=94042bf42111.2.3.0 kV=0.22 kVA=5.73 Pmpp=5.73 conn=wye PF = 1 %cutin = 0.00005 %cutout = 0.00005 effcurve = Myeff P-TCurve = MyPvsT Daily = MyIrrad TDaily = Mytemp 
New PVSystem.PV55 phases=2 Bus1=1446837bf46504.3.1.0 kV=0.22 kVA=9.22 Pmpp=9.22 conn=wye PF = 1 %cutin = 0.00005 %cutout = 0.00005 effcurve = Myeff P-TCurve = MyPvsT Daily = MyIrrad TDaily = Mytemp 
New PVSystem.PV56 phases=3 Bus1=91417bf42149.1.2.3.0 kV=0.22 kVA=16.79 Pmpp=16.79 conn=wye PF = 1 %cutin = 0.00005 %cutout = 0.00005 effcurve = Myeff P-TCurve = MyPvsT Daily = MyIrrad TDaily = Mytemp 
New PVSystem.PV57 phases=2 Bus1=94054bf42148.1.2.0 kV=0.22 kVA=2.12 Pmpp=2.12 conn=wye PF = 1 %cutin = 0.00005 %cutout = 0.00005 effcurve = Myeff P-TCurve = MyPvsT Daily = MyIrrad TDaily = Mytemp 
New PVSystem.PV58 phases=3 Bus1=104146704bf42110.1.2.3.0 kV=0.22 kVA=18.2 Pmpp=18.2 conn=wye PF = 1 %cutin = 0.00005 %cutout = 0.00005 effcurve = Myeff P-TCurve = MyPvsT Daily = MyIrrad TDaily = Mytemp 
New PVSystem.PV59 phases=2 Bus1=94073bf42142.1.2.0 kV=0.22 kVA=10.06 Pmpp=10.06 conn=wye PF = 1 %cutin = 0.00005 %cutout = 0.00005 effcurve = Myeff P-TCurve = MyPvsT Daily = MyIrrad TDaily = Mytemp 
New PVSystem.PV60 phases=3 Bus1=94133bf42166.1.2.3.0 kV=0.22 kVA=12.37 Pmpp=12.37 conn=wye PF = 1 %cutin = 0.00005 %cutout = 0.00005 effcurve = Myeff P-TCurve = MyPvsT Daily = MyIrrad TDaily = Mytemp 
New PVSystem.PV61 phases=2 Bus1=91471bf38588.1.2.0 kV=0.22 kVA=21.68 Pmpp=21.68 conn=wye PF = 1 %cutin = 0.00005 %cutout = 0.00005 effcurve = Myeff P-TCurve = MyPvsT Daily = MyIrrad TDaily = Mytemp 
New PVSystem.PV62 phases=2 Bus1=94105bf42128.1.2.0 kV=0.22 kVA=3.24 Pmpp=3.24 conn=wye PF = 1 %cutin = 0.00005 %cutout = 0.00005 effcurve = Myeff P-TCurve = MyPvsT Daily = MyIrrad TDaily = Mytemp 
New PVSystem.PV63 phases=3 Bus1=94138bf42164.1.2.3.0 kV=0.22 kVA=7.61 Pmpp=7.61 conn=wye PF = 1 %cutin = 0.00005 %cutout = 0.00005 effcurve = Myeff P-TCurve = MyPvsT Daily = MyIrrad TDaily = Mytemp 
New PVSystem.PV64 phases=3 Bus1=94144bf42161.1.2.3.0 kV=0.22 kVA=12.03 Pmpp=12.03 conn=wye PF = 1 %cutin = 0.00005 %cutout = 0.00005 effcurve = Myeff P-TCurve = MyPvsT Daily = MyIrrad TDaily = Mytemp 
New PVSystem.PV65 phases=2 Bus1=430906bf60970.3.1.0 kV=0.22 kVA=4.39 Pmpp=4.39 conn=wye PF = 1 %cutin = 0.00005 %cutout = 0.00005 effcurve = Myeff P-TCurve = MyPvsT Daily = MyIrrad TDaily = Mytemp 
New PVSystem.PV66 phases=2 Bus1=430906bf60970.1.2.0 kV=0.22 kVA=7.54 Pmpp=7.54 conn=wye PF = 1 %cutin = 0.00005 %cutout = 0.00005 effcurve = Myeff P-TCurve = MyPvsT Daily = MyIrrad TDaily = Mytemp 
New PVSystem.PV67 phases=3 Bus1=104310440bf33308.1.2.3.0 kV=0.22 kVA=32.32 Pmpp=32.32 conn=wye PF = 1 %cutin = 0.00005 %cutout = 0.00005 effcurve = Myeff P-TCurve = MyPvsT Daily = MyIrrad TDaily = Mytemp 
New PVSystem.PV68 phases=2 Bus1=94055bf42147.2.3.0 kV=0.22 kVA=8.08 Pmpp=8.08 conn=wye PF = 1 %cutin = 0.00005 %cutout = 0.00005 effcurve = Myeff P-TCurve = MyPvsT Daily = MyIrrad TDaily = Mytemp 
New PVSystem.PV69 phases=3 Bus1=430906bf60970.1.2.3.0 kV=0.22 kVA=43.67 Pmpp=43.67 conn=wye PF = 1 %cutin = 0.00005 %cutout = 0.00005 effcurve = Myeff P-TCurve = MyPvsT Daily = MyIrrad TDaily = Mytemp 
New PVSystem.PV70 phases=2 Bus1=983393bf46484.1.2.0 kV=0.22 kVA=8.93 Pmpp=8.93 conn=wye PF = 1 %cutin = 0.00005 %cutout = 0.00005 effcurve = Myeff P-TCurve = MyPvsT Daily = MyIrrad TDaily = Mytemp 
New PVSystem.PV71 phases=3 Bus1=94073bf42142.1.2.3.0 kV=0.22 kVA=12.46 Pmpp=12.46 conn=wye PF = 1 %cutin = 0.00005 %cutout = 0.00005 effcurve = Myeff P-TCurve = MyPvsT Daily = MyIrrad TDaily = Mytemp 
New PVSystem.PV72 phases=3 Bus1=94057bf42115.1.2.3.0 kV=0.22 kVA=7.91 Pmpp=7.91 conn=wye PF = 1 %cutin = 0.00005 %cutout = 0.00005 effcurve = Myeff P-TCurve = MyPvsT Daily = MyIrrad TDaily = Mytemp 
New PVSystem.PV73 phases=3 Bus1=104301347bf33514.1.2.3.0 kV=0.22 kVA=2.03 Pmpp=2.03 conn=wye PF = 1 %cutin = 0.00005 %cutout = 0.00005 effcurve = Myeff P-TCurve = MyPvsT Daily = MyIrrad TDaily = Mytemp 
New PVSystem.PV74 phases=2 Bus1=13384834bf42159.3.1.0 kV=0.22 kVA=2.56 Pmpp=2.56 conn=wye PF = 1 %cutin = 0.00005 %cutout = 0.00005 effcurve = Myeff P-TCurve = MyPvsT Daily = MyIrrad TDaily = Mytemp 
New PVSystem.PV75 phases=2 Bus1=12820193bf42135.1.2.0 kV=0.22 kVA=3.41 Pmpp=3.41 conn=wye PF = 1 %cutin = 0.00005 %cutout = 0.00005 effcurve = Myeff P-TCurve = MyPvsT Daily = MyIrrad TDaily = Mytemp 
New PVSystem.PV76 phases=2 Bus1=94042bf42111.1.2.0 kV=0.22 kVA=9.44 Pmpp=9.44 conn=wye PF = 1 %cutin = 0.00005 %cutout = 0.00005 effcurve = Myeff P-TCurve = MyPvsT Daily = MyIrrad TDaily = Mytemp 
New PVSystem.PV77 phases=3 Bus1=420218bf46261.1.2.3.0 kV=0.22 kVA=12.05 Pmpp=12.05 conn=wye PF = 1 %cutin = 0.00005 %cutout = 0.00005 effcurve = Myeff P-TCurve = MyPvsT Daily = MyIrrad TDaily = Mytemp 
New PVSystem.PV78 phases=1 Bus1=983358bf46481.1.0 kV=0.22 kVA=20.36 Pmpp=20.36 conn=wye PF = 1 %cutin = 0.00005 %cutout = 0.00005 effcurve = Myeff P-TCurve = MyPvsT Daily = MyIrrad TDaily = Mytemp 
New PVSystem.PV79 phases=3 Bus1=104301347bf33514.1.2.3.0 kV=0.22 kVA=4.48 Pmpp=4.48 conn=wye PF = 1 %cutin = 0.00005 %cutout = 0.00005 effcurve = Myeff P-TCurve = MyPvsT Daily = MyIrrad TDaily = Mytemp 
New PVSystem.PV80 phases=2 Bus1=9559523bf46631.2.3.0 kV=0.22 kVA=19.12 Pmpp=19.12 conn=wye PF = 1 %cutin = 0.00005 %cutout = 0.00005 effcurve = Myeff P-TCurve = MyPvsT Daily = MyIrrad TDaily = Mytemp 
New PVSystem.PV81 phases=2 Bus1=94156bf42160.3.1.0 kV=0.22 kVA=1.41 Pmpp=1.41 conn=wye PF = 1 %cutin = 0.00005 %cutout = 0.00005 effcurve = Myeff P-TCurve = MyPvsT Daily = MyIrrad TDaily = Mytemp 
New PVSystem.PV82 phases=2 Bus1=94063bf42143.2.3.0 kV=0.22 kVA=9.81 Pmpp=9.81 conn=wye PF = 1 %cutin = 0.00005 %cutout = 0.00005 effcurve = Myeff P-TCurve = MyPvsT Daily = MyIrrad TDaily = Mytemp 
New PVSystem.PV83 phases=3 Bus1=983358bf46481.1.2.3.0 kV=0.22 kVA=7.62 Pmpp=7.62 conn=wye PF = 1 %cutin = 0.00005 %cutout = 0.00005 effcurve = Myeff P-TCurve = MyPvsT Daily = MyIrrad TDaily = Mytemp 
New PVSystem.PV84 phases=2 Bus1=94077bf44202.3.1.0 kV=0.22 kVA=18.14 Pmpp=18.14 conn=wye PF = 1 %cutin = 0.00005 %cutout = 0.00005 effcurve = Myeff P-TCurve = MyPvsT Daily = MyIrrad TDaily = Mytemp 
New PVSystem.PV85 phases=2 Bus1=94076bf42139.2.3.0 kV=0.22 kVA=3.41 Pmpp=3.41 conn=wye PF = 1 %cutin = 0.00005 %cutout = 0.00005 effcurve = Myeff P-TCurve = MyPvsT Daily = MyIrrad TDaily = Mytemp 
New PVSystem.PV86 phases=3 Bus1=104301339bf33513.1.2.3.0 kV=0.22 kVA=4.27 Pmpp=4.27 conn=wye PF = 1 %cutin = 0.00005 %cutout = 0.00005 effcurve = Myeff P-TCurve = MyPvsT Daily = MyIrrad TDaily = Mytemp 
New PVSystem.PV87 phases=2 Bus1=428555bf49151.1.2.0 kV=0.22 kVA=3.32 Pmpp=3.32 conn=wye PF = 1 %cutin = 0.00005 %cutout = 0.00005 effcurve = Myeff P-TCurve = MyPvsT Daily = MyIrrad TDaily = Mytemp 
New PVSystem.PV88 phases=2 Bus1=94036bf42153.1.2.0 kV=0.22 kVA=9.47 Pmpp=9.47 conn=wye PF = 1 %cutin = 0.00005 %cutout = 0.00005 effcurve = Myeff P-TCurve = MyPvsT Daily = MyIrrad TDaily = Mytemp 
New PVSystem.PV89 phases=2 Bus1=94098bf42132.1.2.0 kV=0.22 kVA=14.73 Pmpp=14.73 conn=wye PF = 1 %cutin = 0.00005 %cutout = 0.00005 effcurve = Myeff P-TCurve = MyPvsT Daily = MyIrrad TDaily = Mytemp 
New PVSystem.PV90 phases=2 Bus1=90888bf33001.2.3.0 kV=0.22 kVA=21.07 Pmpp=21.07 conn=wye PF = 1 %cutin = 0.00005 %cutout = 0.00005 effcurve = Myeff P-TCurve = MyPvsT Daily = MyIrrad TDaily = Mytemp 
New PVSystem.PV91 phases=3 Bus1=94098bf42132.1.2.3.0 kV=0.22 kVA=33.52 Pmpp=33.52 conn=wye PF = 1 %cutin = 0.00005 %cutout = 0.00005 effcurve = Myeff P-TCurve = MyPvsT Daily = MyIrrad TDaily = Mytemp 
New PVSystem.PV92 phases=2 Bus1=94043bf42113.3.1.0 kV=0.22 kVA=8.43 Pmpp=8.43 conn=wye PF = 1 %cutin = 0.00005 %cutout = 0.00005 effcurve = Myeff P-TCurve = MyPvsT Daily = MyIrrad TDaily = Mytemp 
New PVSystem.PV93 phases=2 Bus1=94095bf42125.2.3.0 kV=0.22 kVA=6.08 Pmpp=6.08 conn=wye PF = 1 %cutin = 0.00005 %cutout = 0.00005 effcurve = Myeff P-TCurve = MyPvsT Daily = MyIrrad TDaily = Mytemp 
New PVSystem.PV94 phases=2 Bus1=94083bf42138.2.3.0 kV=0.22 kVA=14.24 Pmpp=14.24 conn=wye PF = 1 %cutin = 0.00005 %cutout = 0.00005 effcurve = Myeff P-TCurve = MyPvsT Daily = MyIrrad TDaily = Mytemp 
New PVSystem.PV95 phases=2 Bus1=12820193bf42135.1.2.0 kV=0.22 kVA=7.79 Pmpp=7.79 conn=wye PF = 1 %cutin = 0.00005 %cutout = 0.00005 effcurve = Myeff P-TCurve = MyPvsT Daily = MyIrrad TDaily = Mytemp 
New PVSystem.PV96 phases=3 Bus1=94054bf42148.1.2.3.0 kV=0.22 kVA=8.06 Pmpp=8.06 conn=wye PF = 1 %cutin = 0.00005 %cutout = 0.00005 effcurve = Myeff P-TCurve = MyPvsT Daily = MyIrrad TDaily = Mytemp 
New PVSystem.PV97 phases=3 Bus1=94036bf42153.1.2.3.0 kV=0.22 kVA=5.77 Pmpp=5.77 conn=wye PF = 1 %cutin = 0.00005 %cutout = 0.00005 effcurve = Myeff P-TCurve = MyPvsT Daily = MyIrrad TDaily = Mytemp 
New PVSystem.PV98 phases=3 Bus1=94070bf42141.1.2.3.0 kV=0.22 kVA=19.91 Pmpp=19.91 conn=wye PF = 1 %cutin = 0.00005 %cutout = 0.00005 effcurve = Myeff P-TCurve = MyPvsT Daily = MyIrrad TDaily = Mytemp 
New PVSystem.PV99 phases=2 Bus1=94156bf42160.1.2.0 kV=0.22 kVA=3.43 Pmpp=3.43 conn=wye PF = 1 %cutin = 0.00005 %cutout = 0.00005 effcurve = Myeff P-TCurve = MyPvsT Daily = MyIrrad TDaily = Mytemp 
New PVSystem.PV100 phases=2 Bus1=427692bf46256.3.1.0 kV=0.22 kVA=4.08 Pmpp=4.08 conn=wye PF = 1 %cutin = 0.00005 %cutout = 0.00005 effcurve = Myeff P-TCurve = MyPvsT Daily = MyIrrad TDaily = Mytemp 
New PVSystem.PV101 phases=2 Bus1=94073bf42142.1.2.0 kV=0.22 kVA=7.96 Pmpp=7.96 conn=wye PF = 1 %cutin = 0.00005 %cutout = 0.00005 effcurve = Myeff P-TCurve = MyPvsT Daily = MyIrrad TDaily = Mytemp 
New PVSystem.PV102 phases=3 Bus1=13438251bf60891.1.2.3.0 kV=0.22 kVA=24.69 Pmpp=24.69 conn=wye PF = 1 %cutin = 0.00005 %cutout = 0.00005 effcurve = Myeff P-TCurve = MyPvsT Daily = MyIrrad TDaily = Mytemp 
New PVSystem.PV103 phases=3 Bus1=104301347bf33514.1.2.3.0 kV=0.22 kVA=2.11 Pmpp=2.11 conn=wye PF = 1 %cutin = 0.00005 %cutout = 0.00005 effcurve = Myeff P-TCurve = MyPvsT Daily = MyIrrad TDaily = Mytemp 
New PVSystem.PV104 phases=3 Bus1=420218bf46261.1.2.3.0 kV=0.22 kVA=10.13 Pmpp=10.13 conn=wye PF = 1 %cutin = 0.00005 %cutout = 0.00005 effcurve = Myeff P-TCurve = MyPvsT Daily = MyIrrad TDaily = Mytemp 
New PVSystem.PV105 phases=1 Bus1=104301339bf33513.1.0 kV=0.127 kVA=5.41 Pmpp=5.41 conn=wye PF = 1 %cutin = 0.00005 %cutout = 0.00005 effcurve = Myeff P-TCurve = MyPvsT Daily = MyIrrad TDaily = Mytemp 
New PVSystem.PV106 phases=2 Bus1=440646bf42152.2.3.0 kV=0.22 kVA=8.66 Pmpp=8.66 conn=wye PF = 1 %cutin = 0.00005 %cutout = 0.00005 effcurve = Myeff P-TCurve = MyPvsT Daily = MyIrrad TDaily = Mytemp 
New PVSystem.PV107 phases=3 Bus1=94144bf42161.1.2.3.0 kV=0.22 kVA=8.71 Pmpp=8.71 conn=wye PF = 1 %cutin = 0.00005 %cutout = 0.00005 effcurve = Myeff P-TCurve = MyPvsT Daily = MyIrrad TDaily = Mytemp 
New PVSystem.PV108 phases=3 Bus1=94037m784.1.2.3 kV=13.8 kVA=114.71 Pmpp=114.71 conn=wye PF = 1 %cutin = 0.00005 %cutout = 0.00005 effcurve = Myeff P-TCurve = MyPvsT Daily = MyIrrad TDaily = Mytemp 
New PVSystem.PV109 phases=2 Bus1=94070bf42141.2.3.0 kV=0.22 kVA=6.14 Pmpp=6.14 conn=wye PF = 1 %cutin = 0.00005 %cutout = 0.00005 effcurve = Myeff P-TCurve = MyPvsT Daily = MyIrrad TDaily = Mytemp 
New PVSystem.PV110 phases=2 Bus1=91189bf48508.2.3.0 kV=0.22 kVA=11.52 Pmpp=11.52 conn=wye PF = 1 %cutin = 0.00005 %cutout = 0.00005 effcurve = Myeff P-TCurve = MyPvsT Daily = MyIrrad TDaily = Mytemp 
New PVSystem.PV111 phases=3 Bus1=512419bf45838.1.2.3.0 kV=0.22 kVA=9.07 Pmpp=9.07 conn=wye PF = 1 %cutin = 0.00005 %cutout = 0.00005 effcurve = Myeff P-TCurve = MyPvsT Daily = MyIrrad TDaily = Mytemp 
New PVSystem.PV112 phases=2 Bus1=512419bf45838.2.3.0 kV=0.22 kVA=8.53 Pmpp=8.53 conn=wye PF = 1 %cutin = 0.00005 %cutout = 0.00005 effcurve = Myeff P-TCurve = MyPvsT Daily = MyIrrad TDaily = Mytemp 
New PVSystem.PV113 phases=3 Bus1=420218bf46261.1.2.3.0 kV=0.22 kVA=11.67 Pmpp=11.67 conn=wye PF = 1 %cutin = 0.00005 %cutout = 0.00005 effcurve = Myeff P-TCurve = MyPvsT Daily = MyIrrad TDaily = Mytemp 
New PVSystem.PV114 phases=3 Bus1=94129bf42165.1.2.3.0 kV=0.22 kVA=20.36 Pmpp=20.36 conn=wye PF = 1 %cutin = 0.00005 %cutout = 0.00005 effcurve = Myeff P-TCurve = MyPvsT Daily = MyIrrad TDaily = Mytemp 
New PVSystem.PV115 phases=3 Bus1=94060bf42117.1.2.3.0 kV=0.22 kVA=10.23 Pmpp=10.23 conn=wye PF = 1 %cutin = 0.00005 %cutout = 0.00005 effcurve = Myeff P-TCurve = MyPvsT Daily = MyIrrad TDaily = Mytemp 
New PVSystem.PV116 phases=2 Bus1=9559523bf46631.2.3.0 kV=0.22 kVA=15.36 Pmpp=15.36 conn=wye PF = 1 %cutin = 0.00005 %cutout = 0.00005 effcurve = Myeff P-TCurve = MyPvsT Daily = MyIrrad TDaily = Mytemp 
New PVSystem.PV117 phases=3 Bus1=94105bf42128.1.2.3.0 kV=0.22 kVA=6.95 Pmpp=6.95 conn=wye PF = 1 %cutin = 0.00005 %cutout = 0.00005 effcurve = Myeff P-TCurve = MyPvsT Daily = MyIrrad TDaily = Mytemp 
New PVSystem.PV118 phases=3 Bus1=94144bf42161.1.2.3.0 kV=0.22 kVA=17.71 Pmpp=17.71 conn=wye PF = 1 %cutin = 0.00005 %cutout = 0.00005 effcurve = Myeff P-TCurve = MyPvsT Daily = MyIrrad TDaily = Mytemp 
New PVSystem.PV119 phases=3 Bus1=94144bf42161.1.2.3.0 kV=0.22 kVA=10.48 Pmpp=10.48 conn=wye PF = 1 %cutin = 0.00005 %cutout = 0.00005 effcurve = Myeff P-TCurve = MyPvsT Daily = MyIrrad TDaily = Mytemp 
New PVSystem.PV120 phases=2 Bus1=94138bf42164.1.2.0 kV=0.22 kVA=3.6 Pmpp=3.6 conn=wye PF = 1 %cutin = 0.00005 %cutout = 0.00005 effcurve = Myeff P-TCurve = MyPvsT Daily = MyIrrad TDaily = Mytemp 
New PVSystem.PV121 phases=3 Bus1=94063bf42143.1.2.3.0 kV=0.22 kVA=4.93 Pmpp=4.93 conn=wye PF = 1 %cutin = 0.00005 %cutout = 0.00005 effcurve = Myeff P-TCurve = MyPvsT Daily = MyIrrad TDaily = Mytemp 
New PVSystem.PV122 phases=3 Bus1=983393bf46484.1.2.3.0 kV=0.22 kVA=9.19 Pmpp=9.19 conn=wye PF = 1 %cutin = 0.00005 %cutout = 0.00005 effcurve = Myeff P-TCurve = MyPvsT Daily = MyIrrad TDaily = Mytemp 
New PVSystem.PV123 phases=2 Bus1=90904bf54869.2.3.0 kV=0.22 kVA=18.89 Pmpp=18.89 conn=wye PF = 1 %cutin = 0.00005 %cutout = 0.00005 effcurve = Myeff P-TCurve = MyPvsT Daily = MyIrrad TDaily = Mytemp 
New PVSystem.PV124 phases=2 Bus1=9559523bf46631.2.3.0 kV=0.22 kVA=19.12 Pmpp=19.12 conn=wye PF = 1 %cutin = 0.00005 %cutout = 0.00005 effcurve = Myeff P-TCurve = MyPvsT Daily = MyIrrad TDaily = Mytemp 
New PVSystem.PV125 phases=2 Bus1=94101bf42127.1.2.0 kV=0.22 kVA=3.15 Pmpp=3.15 conn=wye PF = 1 %cutin = 0.00005 %cutout = 0.00005 effcurve = Myeff P-TCurve = MyPvsT Daily = MyIrrad TDaily = Mytemp 
New PVSystem.PV126 phases=2 Bus1=91417bf42149.1.2.0 kV=0.22 kVA=10.08 Pmpp=10.08 conn=wye PF = 1 %cutin = 0.00005 %cutout = 0.00005 effcurve = Myeff P-TCurve = MyPvsT Daily = MyIrrad TDaily = Mytemp 
New PVSystem.PV127 phases=2 Bus1=9309181bf46615.1.2.0 kV=0.22 kVA=14.11 Pmpp=14.11 conn=wye PF = 1 %cutin = 0.00005 %cutout = 0.00005 effcurve = Myeff P-TCurve = MyPvsT Daily = MyIrrad TDaily = Mytemp 
New PVSystem.PV128 phases=3 Bus1=94056bf42145.1.2.3.0 kV=0.22 kVA=8.28 Pmpp=8.28 conn=wye PF = 1 %cutin = 0.00005 %cutout = 0.00005 effcurve = Myeff P-TCurve = MyPvsT Daily = MyIrrad TDaily = Mytemp 
New PVSystem.PV129 phases=3 Bus1=91181bf42124.1.2.3.0 kV=0.22 kVA=6.43 Pmpp=6.43 conn=wye PF = 1 %cutin = 0.00005 %cutout = 0.00005 effcurve = Myeff P-TCurve = MyPvsT Daily = MyIrrad TDaily = Mytemp 
New PVSystem.PV130 phases=2 Bus1=94133bf42166.3.1.0 kV=0.22 kVA=6.4 Pmpp=6.4 conn=wye PF = 1 %cutin = 0.00005 %cutout = 0.00005 effcurve = Myeff P-TCurve = MyPvsT Daily = MyIrrad TDaily = Mytemp 
New PVSystem.PV131 phases=3 Bus1=421125bf55729.1.2.3.0 kV=0.22 kVA=3.28 Pmpp=3.28 conn=wye PF = 1 %cutin = 0.00005 %cutout = 0.00005 effcurve = Myeff P-TCurve = MyPvsT Daily = MyIrrad TDaily = Mytemp 
New PVSystem.PV132 phases=2 Bus1=94042bf42111.2.3.0 kV=0.22 kVA=5.51 Pmpp=5.51 conn=wye PF = 1 %cutin = 0.00005 %cutout = 0.00005 effcurve = Myeff P-TCurve = MyPvsT Daily = MyIrrad TDaily = Mytemp 
New PVSystem.PV133 phases=2 Bus1=94096bf42133.1.2.0 kV=0.22 kVA=3.22 Pmpp=3.22 conn=wye PF = 1 %cutin = 0.00005 %cutout = 0.00005 effcurve = Myeff P-TCurve = MyPvsT Daily = MyIrrad TDaily = Mytemp 
New PVSystem.PV134 phases=3 Bus1=983358bf46481.1.2.3.0 kV=0.22 kVA=8.78 Pmpp=8.78 conn=wye PF = 1 %cutin = 0.00005 %cutout = 0.00005 effcurve = Myeff P-TCurve = MyPvsT Daily = MyIrrad TDaily = Mytemp 
New PVSystem.PV135 phases=3 Bus1=91011bf42130.1.2.3.0 kV=0.22 kVA=9.22 Pmpp=9.22 conn=wye PF = 1 %cutin = 0.00005 %cutout = 0.00005 effcurve = Myeff P-TCurve = MyPvsT Daily = MyIrrad TDaily = Mytemp 
New PVSystem.PV136 phases=1 Bus1=430966bf60875.2.0 kV=0.127 kVA=43.58 Pmpp=43.58 conn=wye PF = 1 %cutin = 0.00005 %cutout = 0.00005 effcurve = Myeff P-TCurve = MyPvsT Daily = MyIrrad TDaily = Mytemp 
New PVSystem.PV137 phases=2 Bus1=94171bf42156.1.2.0 kV=0.22 kVA=3.12 Pmpp=3.12 conn=wye PF = 1 %cutin = 0.00005 %cutout = 0.00005 effcurve = Myeff P-TCurve = MyPvsT Daily = MyIrrad TDaily = Mytemp 
New PVSystem.PV138 phases=3 Bus1=983382bf46485.1.2.3.0 kV=0.22 kVA=14.29 Pmpp=14.29 conn=wye PF = 1 %cutin = 0.00005 %cutout = 0.00005 effcurve = Myeff P-TCurve = MyPvsT Daily = MyIrrad TDaily = Mytemp 
New PVSystem.PV139 phases=2 Bus1=94105bf42128.1.2.0 kV=0.22 kVA=6.54 Pmpp=6.54 conn=wye PF = 1 %cutin = 0.00005 %cutout = 0.00005 effcurve = Myeff P-TCurve = MyPvsT Daily = MyIrrad TDaily = Mytemp 
New PVSystem.PV140 phases=3 Bus1=94067bf42119.1.2.3.0 kV=0.22 kVA=8.42 Pmpp=8.42 conn=wye PF = 1 %cutin = 0.00005 %cutout = 0.00005 effcurve = Myeff P-TCurve = MyPvsT Daily = MyIrrad TDaily = Mytemp 
New PVSystem.PV141 phases=3 Bus1=430966bf60875.1.2.3.0 kV=0.22 kVA=7.81 Pmpp=7.81 conn=wye PF = 1 %cutin = 0.00005 %cutout = 0.00005 effcurve = Myeff P-TCurve = MyPvsT Daily = MyIrrad TDaily = Mytemp 
New PVSystem.PV142 phases=3 Bus1=104301347bf33514.1.2.3.0 kV=0.22 kVA=7.75 Pmpp=7.75 conn=wye PF = 1 %cutin = 0.00005 %cutout = 0.00005 effcurve = Myeff P-TCurve = MyPvsT Daily = MyIrrad TDaily = Mytemp 
New PVSystem.PV143 phases=3 Bus1=91080bf42136.1.2.3.0 kV=0.22 kVA=12.02 Pmpp=12.02 conn=wye PF = 1 %cutin = 0.00005 %cutout = 0.00005 effcurve = Myeff P-TCurve = MyPvsT Daily = MyIrrad TDaily = Mytemp 
New PVSystem.PV144 phases=3 Bus1=94059m784.1.2.3 kV=13.8 kVA=183.54 Pmpp=183.54 conn=wye PF = 1 %cutin = 0.00005 %cutout = 0.00005 effcurve = Myeff P-TCurve = MyPvsT Daily = MyIrrad TDaily = Mytemp 
New PVSystem.PV145 phases=2 Bus1=94036bf42153.2.3.0 kV=0.22 kVA=5.21 Pmpp=5.21 conn=wye PF = 1 %cutin = 0.00005 %cutout = 0.00005 effcurve = Myeff P-TCurve = MyPvsT Daily = MyIrrad TDaily = Mytemp 
New PVSystem.PV146 phases=3 Bus1=104301361bf33515.1.2.3.0 kV=0.22 kVA=5.59 Pmpp=5.59 conn=wye PF = 1 %cutin = 0.00005 %cutout = 0.00005 effcurve = Myeff P-TCurve = MyPvsT Daily = MyIrrad TDaily = Mytemp 
New PVSystem.PV147 phases=2 Bus1=9309181bf46615.1.2.0 kV=0.22 kVA=15.73 Pmpp=15.73 conn=wye PF = 1 %cutin = 0.00005 %cutout = 0.00005 effcurve = Myeff P-TCurve = MyPvsT Daily = MyIrrad TDaily = Mytemp 
New PVSystem.PV148 phases=2 Bus1=427842bf46058.3.1.0 kV=0.22 kVA=9.24 Pmpp=9.24 conn=wye PF = 1 %cutin = 0.00005 %cutout = 0.00005 effcurve = Myeff P-TCurve = MyPvsT Daily = MyIrrad TDaily = Mytemp 
New PVSystem.PV149 phases=3 Bus1=512419bf45838.1.2.3.0 kV=0.22 kVA=6.98 Pmpp=6.98 conn=wye PF = 1 %cutin = 0.00005 %cutout = 0.00005 effcurve = Myeff P-TCurve = MyPvsT Daily = MyIrrad TDaily = Mytemp 
New PVSystem.PV150 phases=3 Bus1=94054bf42148.1.2.3.0 kV=0.22 kVA=11.17 Pmpp=11.17 conn=wye PF = 1 %cutin = 0.00005 %cutout = 0.00005 effcurve = Myeff P-TCurve = MyPvsT Daily = MyIrrad TDaily = Mytemp 
New PVSystem.PV151 phases=3 Bus1=94060bf42117.1.2.3.0 kV=0.22 kVA=12.31 Pmpp=12.31 conn=wye PF = 1 %cutin = 0.00005 %cutout = 0.00005 effcurve = Myeff P-TCurve = MyPvsT Daily = MyIrrad TDaily = Mytemp 
New PVSystem.PV152 phases=3 Bus1=94105bf42128.1.2.3.0 kV=0.22 kVA=5.37 Pmpp=5.37 conn=wye PF = 1 %cutin = 0.00005 %cutout = 0.00005 effcurve = Myeff P-TCurve = MyPvsT Daily = MyIrrad TDaily = Mytemp 
New PVSystem.PV153 phases=2 Bus1=94057bf42115.1.2.0 kV=0.22 kVA=4.45 Pmpp=4.45 conn=wye PF = 1 %cutin = 0.00005 %cutout = 0.00005 effcurve = Myeff P-TCurve = MyPvsT Daily = MyIrrad TDaily = Mytemp 
New PVSystem.PV154 phases=2 Bus1=94176bf45366.2.3.0 kV=0.22 kVA=24.51 Pmpp=24.51 conn=wye PF = 1 %cutin = 0.00005 %cutout = 0.00005 effcurve = Myeff P-TCurve = MyPvsT Daily = MyIrrad TDaily = Mytemp 
New PVSystem.PV155 phases=3 Bus1=983393bf46484.1.2.3.0 kV=0.22 kVA=12.37 Pmpp=12.37 conn=wye PF = 1 %cutin = 0.00005 %cutout = 0.00005 effcurve = Myeff P-TCurve = MyPvsT Daily = MyIrrad TDaily = Mytemp 
New PVSystem.PV156 phases=2 Bus1=13384834bf42159.1.2.0 kV=0.22 kVA=5.44 Pmpp=5.44 conn=wye PF = 1 %cutin = 0.00005 %cutout = 0.00005 effcurve = Myeff P-TCurve = MyPvsT Daily = MyIrrad TDaily = Mytemp 
New PVSystem.PV157 phases=3 Bus1=983358bf46481.1.2.3.0 kV=0.22 kVA=6.7 Pmpp=6.7 conn=wye PF = 1 %cutin = 0.00005 %cutout = 0.00005 effcurve = Myeff P-TCurve = MyPvsT Daily = MyIrrad TDaily = Mytemp 
New PVSystem.PV158 phases=2 Bus1=94072bf42121.3.1.0 kV=0.22 kVA=35.3 Pmpp=35.3 conn=wye PF = 1 %cutin = 0.00005 %cutout = 0.00005 effcurve = Myeff P-TCurve = MyPvsT Daily = MyIrrad TDaily = Mytemp 
New PVSystem.PV159 phases=2 Bus1=91181bf42124.2.3.0 kV=0.22 kVA=7.08 Pmpp=7.08 conn=wye PF = 1 %cutin = 0.00005 %cutout = 0.00005 effcurve = Myeff P-TCurve = MyPvsT Daily = MyIrrad TDaily = Mytemp 
New PVSystem.PV160 phases=2 Bus1=94073bf42142.1.2.0 kV=0.22 kVA=18.27 Pmpp=18.27 conn=wye PF = 1 %cutin = 0.00005 %cutout = 0.00005 effcurve = Myeff P-TCurve = MyPvsT Daily = MyIrrad TDaily = Mytemp 
New PVSystem.PV161 phases=2 Bus1=94081bf42122.1.2.0 kV=0.22 kVA=12.5 Pmpp=12.5 conn=wye PF = 1 %cutin = 0.00005 %cutout = 0.00005 effcurve = Myeff P-TCurve = MyPvsT Daily = MyIrrad TDaily = Mytemp 
New PVSystem.PV162 phases=2 Bus1=91471bf38588.3.1.0 kV=0.22 kVA=23.36 Pmpp=23.36 conn=wye PF = 1 %cutin = 0.00005 %cutout = 0.00005 effcurve = Myeff P-TCurve = MyPvsT Daily = MyIrrad TDaily = Mytemp 
New PVSystem.PV163 phases=3 Bus1=12820193bf42135.1.2.3.0 kV=0.22 kVA=6.9 Pmpp=6.9 conn=wye PF = 1 %cutin = 0.00005 %cutout = 0.00005 effcurve = Myeff P-TCurve = MyPvsT Daily = MyIrrad TDaily = Mytemp 
New PVSystem.PV164 phases=3 Bus1=430966bf60875.1.2.3.0 kV=0.22 kVA=42.42 Pmpp=42.42 conn=wye PF = 1 %cutin = 0.00005 %cutout = 0.00005 effcurve = Myeff P-TCurve = MyPvsT Daily = MyIrrad TDaily = Mytemp 
New PVSystem.PV165 phases=2 Bus1=94055bf42147.1.2.0 kV=0.22 kVA=5.73 Pmpp=5.73 conn=wye PF = 1 %cutin = 0.00005 %cutout = 0.00005 effcurve = Myeff P-TCurve = MyPvsT Daily = MyIrrad TDaily = Mytemp 
New PVSystem.PV166 phases=3 Bus1=94077bf44202.1.2.3.0 kV=0.22 kVA=18.1 Pmpp=18.1 conn=wye PF = 1 %cutin = 0.00005 %cutout = 0.00005 effcurve = Myeff P-TCurve = MyPvsT Daily = MyIrrad TDaily = Mytemp 
New PVSystem.PV167 phases=2 Bus1=983407bf46482.3.1.0 kV=0.22 kVA=12.9 Pmpp=12.9 conn=wye PF = 1 %cutin = 0.00005 %cutout = 0.00005 effcurve = Myeff P-TCurve = MyPvsT Daily = MyIrrad TDaily = Mytemp 
New PVSystem.PV168 phases=2 Bus1=13384834bf42159.1.2.0 kV=0.22 kVA=4.52 Pmpp=4.52 conn=wye PF = 1 %cutin = 0.00005 %cutout = 0.00005 effcurve = Myeff P-TCurve = MyPvsT Daily = MyIrrad TDaily = Mytemp 
New PVSystem.PV169 phases=3 Bus1=983382bf46485.1.2.3.0 kV=0.22 kVA=3.2 Pmpp=3.2 conn=wye PF = 1 %cutin = 0.00005 %cutout = 0.00005 effcurve = Myeff P-TCurve = MyPvsT Daily = MyIrrad TDaily = Mytemp 
New PVSystem.PV170 phases=2 Bus1=94095bf42125.2.3.0 kV=0.22 kVA=2.48 Pmpp=2.48 conn=wye PF = 1 %cutin = 0.00005 %cutout = 0.00005 effcurve = Myeff P-TCurve = MyPvsT Daily = MyIrrad TDaily = Mytemp 
New PVSystem.PV171 phases=3 Bus1=104301347bf33514.1.2.3.0 kV=0.22 kVA=6.03 Pmpp=6.03 conn=wye PF = 1 %cutin = 0.00005 %cutout = 0.00005 effcurve = Myeff P-TCurve = MyPvsT Daily = MyIrrad TDaily = Mytemp 
New PVSystem.PV172 phases=1 Bus1=94160bf42157.2.0 kV=0.127 kVA=6.6 Pmpp=6.6 conn=wye PF = 1 %cutin = 0.00005 %cutout = 0.00005 effcurve = Myeff P-TCurve = MyPvsT Daily = MyIrrad TDaily = Mytemp 
New PVSystem.PV173 phases=2 Bus1=94057bf42115.3.1.0 kV=0.22 kVA=4.34 Pmpp=4.34 conn=wye PF = 1 %cutin = 0.00005 %cutout = 0.00005 effcurve = Myeff P-TCurve = MyPvsT Daily = MyIrrad TDaily = Mytemp 
New PVSystem.PV174 phases=2 Bus1=427692bf46256.1.2.0 kV=0.22 kVA=5.02 Pmpp=5.02 conn=wye PF = 1 %cutin = 0.00005 %cutout = 0.00005 effcurve = Myeff P-TCurve = MyPvsT Daily = MyIrrad TDaily = Mytemp 
New PVSystem.PV175 phases=2 Bus1=94074bf42137.3.1.0 kV=0.22 kVA=9.24 Pmpp=9.24 conn=wye PF = 1 %cutin = 0.00005 %cutout = 0.00005 effcurve = Myeff P-TCurve = MyPvsT Daily = MyIrrad TDaily = Mytemp 
New PVSystem.PV176 phases=2 Bus1=1446837bf46504.1.2.0 kV=0.22 kVA=9.22 Pmpp=9.22 conn=wye PF = 1 %cutin = 0.00005 %cutout = 0.00005 effcurve = Myeff P-TCurve = MyPvsT Daily = MyIrrad TDaily = Mytemp 
New PVSystem.PV177 phases=3 Bus1=104301361bf33515.1.2.3.0 kV=0.22 kVA=5.59 Pmpp=5.59 conn=wye PF = 1 %cutin = 0.00005 %cutout = 0.00005 effcurve = Myeff P-TCurve = MyPvsT Daily = MyIrrad TDaily = Mytemp 
New PVSystem.PV178 phases=3 Bus1=94095bf42125.1.2.3.0 kV=0.22 kVA=8.43 Pmpp=8.43 conn=wye PF = 1 %cutin = 0.00005 %cutout = 0.00005 effcurve = Myeff P-TCurve = MyPvsT Daily = MyIrrad TDaily = Mytemp 
New PVSystem.PV179 phases=3 Bus1=94095bf42125.1.2.3.0 kV=0.22 kVA=10.7 Pmpp=10.7 conn=wye PF = 1 %cutin = 0.00005 %cutout = 0.00005 effcurve = Myeff P-TCurve = MyPvsT Daily = MyIrrad TDaily = Mytemp 
New PVSystem.PV180 phases=2 Bus1=91417bf42149.1.2.0 kV=0.22 kVA=11.76 Pmpp=11.76 conn=wye PF = 1 %cutin = 0.00005 %cutout = 0.00005 effcurve = Myeff P-TCurve = MyPvsT Daily = MyIrrad TDaily = Mytemp 
New PVSystem.PV181 phases=3 Bus1=104301339bf33513.1.2.3.0 kV=0.22 kVA=4.77 Pmpp=4.77 conn=wye PF = 1 %cutin = 0.00005 %cutout = 0.00005 effcurve = Myeff P-TCurve = MyPvsT Daily = MyIrrad TDaily = Mytemp 
New PVSystem.PV182 phases=2 Bus1=94036bf42153.3.1.0 kV=0.22 kVA=5.21 Pmpp=5.21 conn=wye PF = 1 %cutin = 0.00005 %cutout = 0.00005 effcurve = Myeff P-TCurve = MyPvsT Daily = MyIrrad TDaily = Mytemp 
New PVSystem.PV183 phases=2 Bus1=94063bf42143.2.3.0 kV=0.22 kVA=3.27 Pmpp=3.27 conn=wye PF = 1 %cutin = 0.00005 %cutout = 0.00005 effcurve = Myeff P-TCurve = MyPvsT Daily = MyIrrad TDaily = Mytemp 
New PVSystem.PV184 phases=2 Bus1=94057bf42115.1.2.0 kV=0.22 kVA=8.88 Pmpp=8.88 conn=wye PF = 1 %cutin = 0.00005 %cutout = 0.00005 effcurve = Myeff P-TCurve = MyPvsT Daily = MyIrrad TDaily = Mytemp 
New PVSystem.PV185 phases=3 Bus1=12820193bf42135.1.2.3.0 kV=0.22 kVA=8.29 Pmpp=8.29 conn=wye PF = 1 %cutin = 0.00005 %cutout = 0.00005 effcurve = Myeff P-TCurve = MyPvsT Daily = MyIrrad TDaily = Mytemp 
New PVSystem.PV186 phases=3 Bus1=104301374bf33516.1.2.3.0 kV=0.22 kVA=4.43 Pmpp=4.43 conn=wye PF = 1 %cutin = 0.00005 %cutout = 0.00005 effcurve = Myeff P-TCurve = MyPvsT Daily = MyIrrad TDaily = Mytemp 
New PVSystem.PV187 phases=3 Bus1=94055bf42147.1.2.3.0 kV=0.22 kVA=8.25 Pmpp=8.25 conn=wye PF = 1 %cutin = 0.00005 %cutout = 0.00005 effcurve = Myeff P-TCurve = MyPvsT Daily = MyIrrad TDaily = Mytemp 
New PVSystem.PV188 phases=2 Bus1=420124bf46355.1.2.0 kV=0.22 kVA=31.05 Pmpp=31.05 conn=wye PF = 1 %cutin = 0.00005 %cutout = 0.00005 effcurve = Myeff P-TCurve = MyPvsT Daily = MyIrrad TDaily = Mytemp 
New PVSystem.PV189 phases=1 Bus1=94054bf42148.3.0 kV=0.127 kVA=2.18 Pmpp=2.18 conn=wye PF = 1 %cutin = 0.00005 %cutout = 0.00005 effcurve = Myeff P-TCurve = MyPvsT Daily = MyIrrad TDaily = Mytemp 
New PVSystem.PV190 phases=3 Bus1=91087bf46262.1.2.3.0 kV=0.22 kVA=3.45 Pmpp=3.45 conn=wye PF = 1 %cutin = 0.00005 %cutout = 0.00005 effcurve = Myeff P-TCurve = MyPvsT Daily = MyIrrad TDaily = Mytemp 
New PVSystem.PV191 phases=2 Bus1=94176bf45366.1.2.0 kV=0.22 kVA=21.6 Pmpp=21.6 conn=wye PF = 1 %cutin = 0.00005 %cutout = 0.00005 effcurve = Myeff P-TCurve = MyPvsT Daily = MyIrrad TDaily = Mytemp 
New PVSystem.PV192 phases=2 Bus1=94074bf42137.2.3.0 kV=0.22 kVA=6.39 Pmpp=6.39 conn=wye PF = 1 %cutin = 0.00005 %cutout = 0.00005 effcurve = Myeff P-TCurve = MyPvsT Daily = MyIrrad TDaily = Mytemp 
New PVSystem.PV193 phases=2 Bus1=420218bf46261.3.1.0 kV=0.22 kVA=14.58 Pmpp=14.58 conn=wye PF = 1 %cutin = 0.00005 %cutout = 0.00005 effcurve = Myeff P-TCurve = MyPvsT Daily = MyIrrad TDaily = Mytemp 
New PVSystem.PV194 phases=3 Bus1=94156bf42160.1.2.3.0 kV=0.22 kVA=1.49 Pmpp=1.49 conn=wye PF = 1 %cutin = 0.00005 %cutout = 0.00005 effcurve = Myeff P-TCurve = MyPvsT Daily = MyIrrad TDaily = Mytemp 
New PVSystem.PV195 phases=2 Bus1=9559523bf46631.3.1.0 kV=0.22 kVA=19.12 Pmpp=19.12 conn=wye PF = 1 %cutin = 0.00005 %cutout = 0.00005 effcurve = Myeff P-TCurve = MyPvsT Daily = MyIrrad TDaily = Mytemp 
New PVSystem.PV196 phases=1 Bus1=983358bf46481.1.0 kV=0.22 kVA=25.82 Pmpp=25.82 conn=wye PF = 1 %cutin = 0.00005 %cutout = 0.00005 effcurve = Myeff P-TCurve = MyPvsT Daily = MyIrrad TDaily = Mytemp 
New PVSystem.PV197 phases=2 Bus1=94101bf42127.3.1.0 kV=0.22 kVA=3.49 Pmpp=3.49 conn=wye PF = 1 %cutin = 0.00005 %cutout = 0.00005 effcurve = Myeff P-TCurve = MyPvsT Daily = MyIrrad TDaily = Mytemp 
New PVSystem.PV198 phases=2 Bus1=104301339bf33513.2.3.0 kV=0.22 kVA=6.44 Pmpp=6.44 conn=wye PF = 1 %cutin = 0.00005 %cutout = 0.00005 effcurve = Myeff P-TCurve = MyPvsT Daily = MyIrrad TDaily = Mytemp 
New PVSystem.PV199 phases=3 Bus1=94081bf42122.1.2.3.0 kV=0.22 kVA=38.68 Pmpp=38.68 conn=wye PF = 1 %cutin = 0.00005 %cutout = 0.00005 effcurve = Myeff P-TCurve = MyPvsT Daily = MyIrrad TDaily = Mytemp 
...
